<NUMBER OF ZONES> 4											
<NUMBER OF NODES> 9											
<FIRST THRU NODE> 1											
<NUMBER OF LINKS> 24
<END OF METADATA>											


~ 	Init node 	Term node 	Capacity 	Length 	Free Flow Time 	B	Power	Speed limit 	Toll 	Type	;
	1	5	100	1	10	1	1	0	0	1	;
	5	1	100	1	10	1	1	0	0	1	;	
	5	2	100	1	10	1	1	0	0	1	;
	2	5	100	1	10	1	1	0	0	1	;
	8	9	100	1	10	1	1	0	0	1	;
	9	8	100	1	10	1	1	0	0	1	;	
	9	6	100	1	10	1	1	0	0	1	;
	6	9	100	1	10	1	1	0	0	1	;
	4	7	100	1	10	1	1	0	0	1	;
	7	4	100	1	10	1	1	0	0	1	;	
	7	3	100	1	10	1	1	0	0	1	;
	3	7	100	1	10	1	1	0	0	1	;
	2	6	100	1	10	1	1	0	0	1	;
	6	1	100	1	10	1	1	0	0	1	;	
	6	3	100	1	10	1	1	0	0	1	;
	3	6	100	1	10	1	1	0	0	1	;
	5	9	100	1	10	1	1	0	0	1	;
	9	5	100	1	10	1	1	0	0	1	;	
	9	7	100	1	10	1	1	0	0	1	;
	7	9	100	1	10	1	1	0	0	1	;
	1	8	100	1	10	1	1	0	0	1	;
	8	1	100	1	10	1	1	0	0	1	;	
	8	4	100	1	10	1	1	0	0	1	;
	4	8	100	1	10	1	1	0	0	1	;