<NUMBER OF ZONES> 4
<TOTAL OD FLOW> 200.0
<END OF METADATA>


Origin 	1 
    1 :      0;     2 :   0; 3 : 50; 4: 0;

Origin 	2 
    1 :      0;     2 :   0; 3 : 0; 4: 50;

Origin 	3 
    1 :      50;     2 :   0; 3 : 0; 4: 0;

Origin 	4 
    1 :      0;     2 :   50; 3 : 0; 4: 0;

