<NUMBER OF ZONES> 4											
<NUMBER OF NODES> 4											
<FIRST THRU NODE> 2											
<NUMBER OF LINKS> 5
<END OF METADATA>											


~ 	Init node 	Term node 	Capacity 	Length 	Free Flow Time 	B	Power	Speed limit 	Toll 	Type	;
	1	2	100	1	1	1	1	0	0	1	;
	2	4	1000000	1	50	1	1	0	0	1	;
	1	3	1000000	1	45	1	1	0	0	1	;
	3	4	200	1	1	1	1	0	0	1	;
	2	3	1000000	1	5	1	1	0	0	1	;
