<NUMBER OF ZONES> 24
<TOTAL OD FLOW> 360600.0
<END OF METADATA>
Origin 	1 
    1 : 0.0;     2 : 158.0;     3 : 146.0;     4 : 118.0;     5 : 183.0; 
    6 : 114.0;     7 : 128.0;     8 : 186.0;     9 : 106.0;     10 : 175.0; 
    11 : 156.0;     12 : 170.0;     13 : 146.0;     14 : 133.0;     15 : 193.0; 
    16 : 194.0;     17 : 101.0;     18 : 100.0;     19 : 180.0;     20 : 115.0; 
    21 : 173.0;     22 : 108.0;     23 : 150.0;     24 : 151.0; 

Origin 	2 
    1 : 174.0;     2 : 0.0;     3 : 153.0;     4 : 167.0;     5 : 105.0; 
    6 : 141.0;     7 : 135.0;     8 : 196.0;     9 : 174.0;     10 : 199.0; 
    11 : 158.0;     12 : 146.0;     13 : 116.0;     14 : 147.0;     15 : 164.0; 
    16 : 161.0;     17 : 101.0;     18 : 0.0;     19 : 193.0;     20 : 176.0; 
    21 : 0.0;     22 : 109.0;     23 : 0.0;     24 : 0.0; 

Origin 	3 
    1 : 113.0;     2 : 112.0;     3 : 0.0;     4 : 124.0;     5 : 139.0; 
    6 : 172.0;     7 : 200.0;     8 : 141.0;     9 : 152.0;     10 : 191.0; 
    11 : 103.0;     12 : 115.0;     13 : 166.0;     14 : 106.0;     15 : 169.0; 
    16 : 163.0;     17 : 122.0;     18 : 0.0;     19 : 0.0;     20 : 0.0; 
    21 : 0.0;     22 : 107.0;     23 : 196.0;     24 : 0.0; 

Origin 	4 
    1 : 154.0;     2 : 150.0;     3 : 189.0;     4 : 0.0;     5 : 104.0; 
    6 : 103.0;     7 : 102.0;     8 : 127.0;     9 : 153.0;     10 : 142.0; 
    11 : 184.0;     12 : 100.0;     13 : 184.0;     14 : 108.0;     15 : 168.0; 
    16 : 192.0;     17 : 111.0;     18 : 161.0;     19 : 133.0;     20 : 194.0; 
    21 : 172.0;     22 : 200.0;     23 : 120.0;     24 : 105.0; 

Origin 	5 
    1 : 176.0;     2 : 120.0;     3 : 198.0;     4 : 116.0;     5 : 0.0; 
    6 : 159.0;     7 : 192.0;     8 : 189.0;     9 : 128.0;     10 : 193.0; 
    11 : 100.0;     12 : 198.0;     13 : 117.0;     14 : 183.0;     15 : 154.0; 
    16 : 147.0;     17 : 184.0;     18 : 0.0;     19 : 126.0;     20 : 111.0; 
    21 : 126.0;     22 : 132.0;     23 : 166.0;     24 : 0.0; 

Origin 	6 
    1 : 158.0;     2 : 198.0;     3 : 189.0;     4 : 156.0;     5 : 154.0; 
    6 : 0.0;     7 : 101.0;     8 : 189.0;     9 : 193.0;     10 : 138.0; 
    11 : 186.0;     12 : 119.0;     13 : 145.0;     14 : 126.0;     15 : 153.0; 
    16 : 153.0;     17 : 149.0;     18 : 154.0;     19 : 159.0;     20 : 133.0; 
    21 : 126.0;     22 : 186.0;     23 : 144.0;     24 : 150.0; 

Origin 	7 
    1 : 185.0;     2 : 129.0;     3 : 156.0;     4 : 123.0;     5 : 200.0; 
    6 : 162.0;     7 : 0.0;     8 : 182.0;     9 : 154.0;     10 : 132.0; 
    11 : 191.0;     12 : 110.0;     13 : 176.0;     14 : 127.0;     15 : 169.0; 
    16 : 190.0;     17 : 132.0;     18 : 189.0;     19 : 175.0;     20 : 195.0; 
    21 : 158.0;     22 : 147.0;     23 : 200.0;     24 : 157.0; 

Origin 	8 
    1 : 164.0;     2 : 101.0;     3 : 158.0;     4 : 179.0;     5 : 131.0; 
    6 : 123.0;     7 : 186.0;     8 : 0.0;     9 : 107.0;     10 : 124.0; 
    11 : 172.0;     12 : 147.0;     13 : 198.0;     14 : 142.0;     15 : 134.0; 
    16 : 153.0;     17 : 193.0;     18 : 101.0;     19 : 169.0;     20 : 192.0; 
    21 : 120.0;     22 : 188.0;     23 : 155.0;     24 : 129.0; 

Origin 	9 
    1 : 164.0;     2 : 126.0;     3 : 107.0;     4 : 136.0;     5 : 188.0; 
    6 : 143.0;     7 : 123.0;     8 : 197.0;     9 : 0.0;     10 : 106.0; 
    11 : 149.0;     12 : 104.0;     13 : 165.0;     14 : 114.0;     15 : 184.0; 
    16 : 130.0;     17 : 152.0;     18 : 181.0;     19 : 200.0;     20 : 163.0; 
    21 : 197.0;     22 : 120.0;     23 : 178.0;     24 : 127.0; 

Origin 	10 
    1 : 110.0;     2 : 190.0;     3 : 120.0;     4 : 116.0;     5 : 127.0; 
    6 : 181.0;     7 : 171.0;     8 : 109.0;     9 : 140.0;     10 : 0.0; 
    11 : 187.0;     12 : 135.0;     13 : 143.0;     14 : 143.0;     15 : 105.0; 
    16 : 139.0;     17 : 115.0;     18 : 116.0;     19 : 152.0;     20 : 189.0; 
    21 : 193.0;     22 : 131.0;     23 : 178.0;     24 : 159.0; 

Origin 	11 
    1 : 154.0;     2 : 182.0;     3 : 109.0;     4 : 117.0;     5 : 114.0; 
    6 : 181.0;     7 : 132.0;     8 : 111.0;     9 : 198.0;     10 : 131.0; 
    11 : 0.0;     12 : 118.0;     13 : 169.0;     14 : 151.0;     15 : 141.0; 
    16 : 156.0;     17 : 119.0;     18 : 152.0;     19 : 199.0;     20 : 111.0; 
    21 : 111.0;     22 : 113.0;     23 : 150.0;     24 : 181.0; 

Origin 	12 
    1 : 199.0;     2 : 163.0;     3 : 122.0;     4 : 144.0;     5 : 172.0; 
    6 : 124.0;     7 : 152.0;     8 : 190.0;     9 : 121.0;     10 : 140.0; 
    11 : 123.0;     12 : 0.0;     13 : 101.0;     14 : 157.0;     15 : 130.0; 
    16 : 143.0;     17 : 128.0;     18 : 181.0;     19 : 113.0;     20 : 104.0; 
    21 : 117.0;     22 : 103.0;     23 : 137.0;     24 : 113.0; 

Origin 	13 
    1 : 177.0;     2 : 197.0;     3 : 118.0;     4 : 167.0;     5 : 130.0; 
    6 : 187.0;     7 : 138.0;     8 : 158.0;     9 : 199.0;     10 : 130.0; 
    11 : 195.0;     12 : 193.0;     13 : 0.0;     14 : 162.0;     15 : 148.0; 
    16 : 150.0;     17 : 142.0;     18 : 179.0;     19 : 150.0;     20 : 127.0; 
    21 : 117.0;     22 : 126.0;     23 : 188.0;     24 : 150.0; 

Origin 	14 
    1 : 167.0;     2 : 119.0;     3 : 126.0;     4 : 170.0;     5 : 157.0; 
    6 : 108.0;     7 : 198.0;     8 : 141.0;     9 : 189.0;     10 : 102.0; 
    11 : 196.0;     12 : 187.0;     13 : 160.0;     14 : 0.0;     15 : 136.0; 
    16 : 160.0;     17 : 132.0;     18 : 143.0;     19 : 146.0;     20 : 122.0; 
    21 : 133.0;     22 : 138.0;     23 : 109.0;     24 : 194.0; 

Origin 	15 
    1 : 196.0;     2 : 130.0;     3 : 142.0;     4 : 189.0;     5 : 195.0; 
    6 : 134.0;     7 : 114.0;     8 : 138.0;     9 : 192.0;     10 : 109.0; 
    11 : 105.0;     12 : 124.0;     13 : 123.0;     14 : 189.0;     15 : 0.0; 
    16 : 133.0;     17 : 180.0;     18 : 199.0;     19 : 132.0;     20 : 170.0; 
    21 : 191.0;     22 : 170.0;     23 : 128.0;     24 : 164.0; 

Origin 	16 
    1 : 163.0;     2 : 172.0;     3 : 156.0;     4 : 188.0;     5 : 113.0; 
    6 : 167.0;     7 : 184.0;     8 : 145.0;     9 : 155.0;     10 : 110.0; 
    11 : 111.0;     12 : 102.0;     13 : 132.0;     14 : 163.0;     15 : 200.0; 
    16 : 0.0;     17 : 189.0;     18 : 179.0;     19 : 114.0;     20 : 185.0; 
    21 : 193.0;     22 : 101.0;     23 : 131.0;     24 : 199.0; 

Origin 	17 
    1 : 109.0;     2 : 164.0;     3 : 154.0;     4 : 145.0;     5 : 194.0; 
    6 : 143.0;     7 : 109.0;     8 : 110.0;     9 : 175.0;     10 : 114.0; 
    11 : 124.0;     12 : 164.0;     13 : 155.0;     14 : 158.0;     15 : 183.0; 
    16 : 129.0;     17 : 0.0;     18 : 198.0;     19 : 163.0;     20 : 167.0; 
    21 : 181.0;     22 : 158.0;     23 : 110.0;     24 : 133.0; 

Origin 	18 
    1 : 179.0;     2 : 0.0;     3 : 0.0;     4 : 148.0;     5 : 0.0; 
    6 : 111.0;     7 : 112.0;     8 : 157.0;     9 : 126.0;     10 : 144.0; 
    11 : 156.0;     12 : 112.0;     13 : 191.0;     14 : 122.0;     15 : 178.0; 
    16 : 119.0;     17 : 112.0;     18 : 0.0;     19 : 109.0;     20 : 126.0; 
    21 : 190.0;     22 : 105.0;     23 : 184.0;     24 : 0.0; 

Origin 	19 
    1 : 139.0;     2 : 181.0;     3 : 0.0;     4 : 170.0;     5 : 117.0; 
    6 : 127.0;     7 : 106.0;     8 : 200.0;     9 : 156.0;     10 : 169.0; 
    11 : 130.0;     12 : 148.0;     13 : 178.0;     14 : 107.0;     15 : 124.0; 
    16 : 144.0;     17 : 166.0;     18 : 112.0;     19 : 0.0;     20 : 199.0; 
    21 : 175.0;     22 : 161.0;     23 : 178.0;     24 : 152.0; 

Origin 	20 
    1 : 104.0;     2 : 191.0;     3 : 0.0;     4 : 175.0;     5 : 182.0; 
    6 : 193.0;     7 : 113.0;     8 : 169.0;     9 : 145.0;     10 : 142.0; 
    11 : 176.0;     12 : 115.0;     13 : 146.0;     14 : 153.0;     15 : 167.0; 
    16 : 105.0;     17 : 105.0;     18 : 194.0;     19 : 111.0;     20 : 0.0; 
    21 : 165.0;     22 : 112.0;     23 : 151.0;     24 : 133.0; 

Origin 	21 
    1 : 137.0;     2 : 0.0;     3 : 0.0;     4 : 196.0;     5 : 103.0; 
    6 : 192.0;     7 : 116.0;     8 : 134.0;     9 : 136.0;     10 : 181.0; 
    11 : 178.0;     12 : 168.0;     13 : 181.0;     14 : 132.0;     15 : 129.0; 
    16 : 150.0;     17 : 181.0;     18 : 131.0;     19 : 119.0;     20 : 176.0; 
    21 : 0.0;     22 : 103.0;     23 : 150.0;     24 : 125.0; 

Origin 	22 
    1 : 163.0;     2 : 100.0;     3 : 177.0;     4 : 150.0;     5 : 150.0; 
    6 : 102.0;     7 : 155.0;     8 : 140.0;     9 : 148.0;     10 : 142.0; 
    11 : 150.0;     12 : 168.0;     13 : 168.0;     14 : 102.0;     15 : 143.0; 
    16 : 173.0;     17 : 131.0;     18 : 151.0;     19 : 125.0;     20 : 125.0; 
    21 : 200.0;     22 : 0.0;     23 : 171.0;     24 : 157.0; 

Origin 	23 
    1 : 122.0;     2 : 0.0;     3 : 171.0;     4 : 180.0;     5 : 109.0; 
    6 : 199.0;     7 : 188.0;     8 : 158.0;     9 : 199.0;     10 : 113.0; 
    11 : 198.0;     12 : 171.0;     13 : 196.0;     14 : 127.0;     15 : 134.0; 
    16 : 175.0;     17 : 193.0;     18 : 173.0;     19 : 145.0;     20 : 189.0; 
    21 : 165.0;     22 : 129.0;     23 : 0.0;     24 : 126.0; 

Origin 	24 
    1 : 134.0;     2 : 0.0;     3 : 0.0;     4 : 141.0;     5 : 0.0; 
    6 : 142.0;     7 : 190.0;     8 : 107.0;     9 : 147.0;     10 : 119.0; 
    11 : 139.0;     12 : 188.0;     13 : 101.0;     14 : 102.0;     15 : 176.0; 
    16 : 152.0;     17 : 197.0;     18 : 0.0;     19 : 111.0;     20 : 107.0; 
    21 : 161.0;     22 : 140.0;     23 : 180.0;     24 : 0.0; 

